iidm/iidm-xml-converter/src/test/resources/tl.xiidm
<?xml version="1.0" encoding="UTF-8"?>
<iidm:network xmlns:iidm="http://www.itesla_project.eu/schema/iidm/1_0" id="n" caseDate="2019-03-28T16:47:02.826+01:00" forecastDistance="0" sourceFormat="tieline">
    <iidm:substation id="s1" country="FR">
        <iidm:voltageLevel id="vl1" nominalV="380.0" topologyKind="BUS_BREAKER">
            <iidm:busBreakerTopology>
                <iidm:bus id="b1"/>
            </iidm:busBreakerTopology>
            <iidm:generator id="g1" energySource="OTHER" minP="50.0" maxP="150.0" voltageRegulatorOn="true" targetP="100.0" targetV="400.0" bus="b1" connectableBus="b1">
                <iidm:minMaxReactiveLimits minQ="-1.7976931348623157E308" maxQ="1.7976931348623157E308"/>
            </iidm:generator>
        </iidm:voltageLevel>
    </iidm:substation>
    <iidm:substation id="s2" country="BE">
        <iidm:voltageLevel id="vl2" nominalV="380.0" topologyKind="BUS_BREAKER">
            <iidm:busBreakerTopology>
                <iidm:bus id="b2"/>
            </iidm:busBreakerTopology>
            <iidm:load id="ld1" loadType="UNDEFINED" p0="0.0" q0="0.0" bus="b2" connectableBus="b2"/>
        </iidm:voltageLevel>
    </iidm:substation>
    <iidm:tieLine id="l1 + l2" ucteXnodeCode="XNODE" bus1="b1" connectableBus1="b1" voltageLevelId1="vl1" bus2="b2" connectableBus2="b2" voltageLevelId2="vl2" id_1="l1" name_1="l1" r_1="1.0" x_1="1.0" g1_1="0.0" b1_1="0.0" g2_1="0.0" b2_1="0.0" xnodeP_1="0.0" xnodeQ_1="0.0" id_2="l2" name_2="l2" r_2="1.0" x_2="1.0" g1_2="0.0" b1_2="0.0" g2_2="0.0" b2_2="0.0" xnodeP_2="0.0" xnodeQ_2="0.0"/>
</iidm:network>
